L6/1726533/Cargas.dss
! ==========================================================
! CARGAS — mes 01
! BT: UCBT_tab agregada por transformador (kW = ENE/730 h)
! MT: UCMT_tab individual no PAC do consumidor
! fator de escala aplicado: 1
! 0 cargas de MT descartadas por PAC ausente da rede.
! ==========================================================
New Load.BT_439941781_439941780_1 Bus1=node_708909359.1.4 Phases=1 Model=8 zipv=(0.5,0,0.5,1,0,0,0) kv=0.1270 pf=0.92 kW=4.189498 Daily=RES1_25
New Load.BT_439941781_439941780_2 Bus1=node_708909359.2.4 Phases=1 Model=8 zipv=(0.5,0,0.5,1,0,0,0) kv=0.1270 pf=0.92 kW=4.189498 Daily=RES1_25
New Load.BT_439941781_439941780_3 Bus1=node_708909359.3.4 Phases=1 Model=8 zipv=(0.5,0,0.5,1,0,0,0) kv=0.1270 pf=0.92 kW=4.189498 Daily=RES1_25
New Load.BT_324203794_325283019_1 Bus1=node_418416940.1.4 Phases=1 Model=8 zipv=(0.5,0,0.5,1,0,0,0) kv=0.1270 pf=0.92 kW=3.527397 Daily=RES1_25
New Load.BT_324203794_325283019_2 Bus1=node_418416940.2.4 Phases=1 Model=8 zipv=(0.5,0,0.5,1,0,0,0) kv=0.1270 pf=0.92 kW=3.527397 Daily=RES1_25
New Load.BT_324203794_325283019_3 Bus1=node_418416940.3.4 Phases=1 Model=8 zipv=(0.5,0,0.5,1,0,0,0) kv=0.1270 pf=0.92 kW=3.527397 Daily=RES1_25
New Load.BT_324798431_325186355_1 Bus1=node_418938390.1.4 Phases=1 Model=8 zipv=(0.5,0,0.5,1,0,0,0) kv=0.1270 pf=0.92 kW=6.152055 Daily=RES1_25
New Load.BT_324798431_325186355_2 Bus1=node_418938390.2.4 Phases=1 Model=8 zipv=(0.5,0,0.5,1,0,0,0) kv=0.1270 pf=0.92 kW=6.152055 Daily=RES1_25
New Load.BT_324798431_325186355_3 Bus1=node_418938390.3.4 Phases=1 Model=8 zipv=(0.5,0,0.5,1,0,0,0) kv=0.1270 pf=0.92 kW=6.152055 Daily=RES1_25
New Load.BT_324493613_325216705_1 Bus1=node_418332993.1.4 Phases=1 Model=8 zipv=(0.5,0,0.5,1,0,0,0) kv=0.1270 pf=0.92 kW=4.506849 Daily=RES1_25
New Load.BT_324493613_325216705_2 Bus1=node_418332993.2.4 Phases=1 Model=8 zipv=(0.5,0,0.5,1,0,0,0) kv=0.1270 pf=0.92 kW=4.506849 Daily=RES1_25
New Load.BT_324493613_325216705_3 Bus1=node_418332993.3.4 Phases=1 Model=8 zipv=(0.5,0,0.5,1,0,0,0) kv=0.1270 pf=0.92 kW=4.506849 Daily=RES1_25
New Load.BT_579476240_579476239_1 Bus1=node_1767986525.1.4 Phases=1 Model=8 zipv=(0.5,0,0.5,1,0,0,0) kv=0.1270 pf=0.92 kW=1.682648 Daily=RES1_25
New Load.BT_579476240_579476239_2 Bus1=node_1767986525.2.4 Phases=1 Model=8 zipv=(0.5,0,0.5,1,0,0,0) kv=0.1270 pf=0.92 kW=1.682648 Daily=RES1_25
New Load.BT_579476240_579476239_3 Bus1=node_1767986525.3.4 Phases=1 Model=8 zipv=(0.5,0,0.5,1,0,0,0) kv=0.1270 pf=0.92 kW=1.682648 Daily=RES1_25
New Load.BT_324940088_325281209_1 Bus1=node_418158156.1.4 Phases=1 Model=8 zipv=(0.5,0,0.5,1,0,0,0) kv=0.1270 pf=0.92 kW=1.689498 Daily=RES1_25
New Load.BT_324940088_325281209_2 Bus1=node_418158156.2.4 Phases=1 Model=8 zipv=(0.5,0,0.5,1,0,0,0) kv=0.1270 pf=0.92 kW=1.689498 Daily=RES1_25
New Load.BT_324940088_325281209_3 Bus1=node_418158156.3.4 Phases=1 Model=8 zipv=(0.5,0,0.5,1,0,0,0) kv=0.1270 pf=0.92 kW=1.689498 Daily=RES1_25
New Load.BT_324801802_325186282_1 Bus1=node_419001670.1.4 Phases=1 Model=8 zipv=(0.5,0,0.5,1,0,0,0) kv=0.1270 pf=0.92 kW=9.128311 Daily=RES1_25
New Load.BT_324801802_325186282_2 Bus1=node_419001670.2.4 Phases=1 Model=8 zipv=(0.5,0,0.5,1,0,0,0) kv=0.1270 pf=0.92 kW=9.128311 Daily=RES1_25
New Load.BT_324801802_325186282_3 Bus1=node_419001670.3.4 Phases=1 Model=8 zipv=(0.5,0,0.5,1,0,0,0) kv=0.1270 pf=0.92 kW=9.128311 Daily=RES1_25
New Load.BT_324943765_1994395534_1 Bus1=node_418312601.1.4 Phases=1 Model=8 zipv=(0.5,0,0.5,1,0,0,0) kv=0.1270 pf=0.92 kW=2.215068 Daily=RES1_25
New Load.BT_324943765_1994395534_2 Bus1=node_418312601.2.4 Phases=1 Model=8 zipv=(0.5,0,0.5,1,0,0,0) kv=0.1270 pf=0.92 kW=2.215068 Daily=RES1_25
New Load.BT_324943765_1994395534_3 Bus1=node_418312601.3.4 Phases=1 Model=8 zipv=(0.5,0,0.5,1,0,0,0) kv=0.1270 pf=0.92 kW=2.215068 Daily=RES1_25
New Load.BT_1060498434_1060498435_1 Bus1=node_1327297509.1.4 Phases=1 Model=8 zipv=(0.5,0,0.5,1,0,0,0) kv=0.1270 pf=0.92 kW=0.262100 Daily=RES1_25
New Load.BT_1060498434_1060498435_2 Bus1=node_1327297509.2.4 Phases=1 Model=8 zipv=(0.5,0,0.5,1,0,0,0) kv=0.1270 pf=0.92 kW=0.262100 Daily=RES1_25
New Load.BT_1060498434_1060498435_3 Bus1=node_1327297509.3.4 Phases=1 Model=8 zipv=(0.5,0,0.5,1,0,0,0) kv=0.1270 pf=0.92 kW=0.262100 Daily=RES1_25
New Load.BT_324202885_325187568_1 Bus1=node_419000203.1.4 Phases=1 Model=8 zipv=(0.5,0,0.5,1,0,0,0) kv=0.1270 pf=0.92 kW=6.420091 Daily=RES1_25
New Load.BT_324202885_325187568_2 Bus1=node_419000203.2.4 Phases=1 Model=8 zipv=(0.5,0,0.5,1,0,0,0) kv=0.1270 pf=0.92 kW=6.420091 Daily=RES1_25
New Load.BT_324202885_325187568_3 Bus1=node_419000203.3.4 Phases=1 Model=8 zipv=(0.5,0,0.5,1,0,0,0) kv=0.1270 pf=0.92 kW=6.420091 Daily=RES1_25
New Load.BT_324203128_325281157_1 Bus1=node_418182813.1.4 Phases=1 Model=8 zipv=(0.5,0,0.5,1,0,0,0) kv=0.1270 pf=0.92 kW=2.706393 Daily=RES1_25
New Load.BT_324203128_325281157_2 Bus1=node_418182813.2.4 Phases=1 Model=8 zipv=(0.5,0,0.5,1,0,0,0) kv=0.1270 pf=0.92 kW=2.706393 Daily=RES1_25
New Load.BT_324203128_325281157_3 Bus1=node_418182813.3.4 Phases=1 Model=8 zipv=(0.5,0,0.5,1,0,0,0) kv=0.1270 pf=0.92 kW=2.706393 Daily=RES1_25
New Load.BT_324940789_325281201_1 Bus1=node_418156614.1.4 Phases=1 Model=8 zipv=(0.5,0,0.5,1,0,0,0) kv=0.1270 pf=0.92 kW=3.597717 Daily=RES1_25
New Load.BT_324940789_325281201_2 Bus1=node_418156614.2.4 Phases=1 Model=8 zipv=(0.5,0,0.5,1,0,0,0) kv=0.1270 pf=0.92 kW=3.597717 Daily=RES1_25
New Load.BT_324940789_325281201_3 Bus1=node_418156614.3.4 Phases=1 Model=8 zipv=(0.5,0,0.5,1,0,0,0) kv=0.1270 pf=0.92 kW=3.597717 Daily=RES1_25
New Load.BT_324801226_325066333_1 Bus1=node_419000419.1.4 Phases=1 Model=8 zipv=(0.5,0,0.5,1,0,0,0) kv=0.1270 pf=0.92 kW=5.272603 Daily=RES1_25
New Load.BT_324801226_325066333_2 Bus1=node_419000419.2.4 Phases=1 Model=8 zipv=(0.5,0,0.5,1,0,0,0) kv=0.1270 pf=0.92 kW=5.272603 Daily=RES1_25
New Load.BT_324801226_325066333_3 Bus1=node_419000419.3.4 Phases=1 Model=8 zipv=(0.5,0,0.5,1,0,0,0) kv=0.1270 pf=0.92 kW=5.272603 Daily=RES1_25
New Load.BT_324658673_325280890_1 Bus1=node_419109026.1.4 Phases=1 Model=8 zipv=(0.5,0,0.5,1,0,0,0) kv=0.1270 pf=0.92 kW=1.208676 Daily=RES1_25
New Load.BT_324658673_325280890_2 Bus1=node_419109026.2.4 Phases=1 Model=8 zipv=(0.5,0,0.5,1,0,0,0) kv=0.1270 pf=0.92 kW=1.208676 Daily=RES1_25
New Load.BT_324658673_325280890_3 Bus1=node_419109026.3.4 Phases=1 Model=8 zipv=(0.5,0,0.5,1,0,0,0) kv=0.1270 pf=0.92 kW=1.208676 Daily=RES1_25
New Load.BT_324494614_325186350_1 Bus1=node_418900954.1.4 Phases=1 Model=8 zipv=(0.5,0,0.5,1,0,0,0) kv=0.1270 pf=0.92 kW=0.773059 Daily=RES1_25
New Load.BT_324494614_325186350_2 Bus1=node_418900954.2.4 Phases=1 Model=8 zipv=(0.5,0,0.5,1,0,0,0) kv=0.1270 pf=0.92 kW=0.773059 Daily=RES1_25
New Load.BT_324494614_325186350_3 Bus1=node_418900954.3.4 Phases=1 Model=8 zipv=(0.5,0,0.5,1,0,0,0) kv=0.1270 pf=0.92 kW=0.773059 Daily=RES1_25
New Load.BT_324802361_325326796_1 Bus1=node_418899379.1.4 Phases=1 Model=8 zipv=(0.5,0,0.5,1,0,0,0) kv=0.1270 pf=0.92 kW=6.060274 Daily=RES1_25
New Load.BT_324802361_325326796_2 Bus1=node_418899379.2.4 Phases=1 Model=8 zipv=(0.5,0,0.5,1,0,0,0) kv=0.1270 pf=0.92 kW=6.060274 Daily=RES1_25
New Load.BT_324802361_325326796_3 Bus1=node_418899379.3.4 Phases=1 Model=8 zipv=(0.5,0,0.5,1,0,0,0) kv=0.1270 pf=0.92 kW=6.060274 Daily=RES1_25
New Load.BT_324203000_325248533_1 Bus1=node_418898881.1.4 Phases=1 Model=8 zipv=(0.5,0,0.5,1,0,0,0) kv=0.1200 pf=0.92 kW=1.033562 Daily=RES1_25
New Load.BT_324203000_325248533_2 Bus1=node_418898881.2.4 Phases=1 Model=8 zipv=(0.5,0,0.5,1,0,0,0) kv=0.1200 pf=0.92 kW=1.033562 Daily=RES1_25
New Load.BT_324659666_325326818_1 Bus1=node_418900768.1.4 Phases=1 Model=8 zipv=(0.5,0,0.5,1,0,0,0) kv=0.1270 pf=0.92 kW=5.859817 Daily=RES1_25
New Load.BT_324659666_325326818_2 Bus1=node_418900768.2.4 Phases=1 Model=8 zipv=(0.5,0,0.5,1,0,0,0) kv=0.1270 pf=0.92 kW=5.859817 Daily=RES1_25
New Load.BT_324659666_325326818_3 Bus1=node_418900768.3.4 Phases=1 Model=8 zipv=(0.5,0,0.5,1,0,0,0) kv=0.1270 pf=0.92 kW=5.859817 Daily=RES1_25
New Load.BT_1039744958_1039744957_1 Bus1=node_455813422.1.4 Phases=1 Model=8 zipv=(0.5,0,0.5,1,0,0,0) kv=0.1270 pf=0.92 kW=3.909589 Daily=RES1_25
New Load.BT_1039744958_1039744957_2 Bus1=node_455813422.2.4 Phases=1 Model=8 zipv=(0.5,0,0.5,1,0,0,0) kv=0.1270 pf=0.92 kW=3.909589 Daily=RES1_25
New Load.BT_1039744958_1039744957_3 Bus1=node_455813422.3.4 Phases=1 Model=8 zipv=(0.5,0,0.5,1,0,0,0) kv=0.1270 pf=0.92 kW=3.909589 Daily=RES1_25
New Load.BT_325064970_325248606_1 Bus1=node_418899673.1.4 Phases=1 Model=8 zipv=(0.5,0,0.5,1,0,0,0) kv=0.1270 pf=0.92 kW=4.261644 Daily=RES1_25
New Load.BT_325064970_325248606_2 Bus1=node_418899673.2.4 Phases=1 Model=8 zipv=(0.5,0,0.5,1,0,0,0) kv=0.1270 pf=0.92 kW=4.261644 Daily=RES1_25
New Load.BT_325064970_325248606_3 Bus1=node_418899673.3.4 Phases=1 Model=8 zipv=(0.5,0,0.5,1,0,0,0) kv=0.1270 pf=0.92 kW=4.261644 Daily=RES1_25
New Load.BT_324800792_2658127733_1 Bus1=node_419000305.1.4 Phases=1 Model=8 zipv=(0.5,0,0.5,1,0,0,0) kv=0.1270 pf=0.92 kW=5.617808 Daily=RES1_25
New Load.BT_324800792_2658127733_2 Bus1=node_419000305.2.4 Phases=1 Model=8 zipv=(0.5,0,0.5,1,0,0,0) kv=0.1270 pf=0.92 kW=5.617808 Daily=RES1_25
New Load.BT_324800792_2658127733_3 Bus1=node_419000305.3.4 Phases=1 Model=8 zipv=(0.5,0,0.5,1,0,0,0) kv=0.1270 pf=0.92 kW=5.617808 Daily=RES1_25
New Load.BT_324496237_325279257_1 Bus1=node_420931804.1.4 Phases=1 Model=8 zipv=(0.5,0,0.5,1,0,0,0) kv=0.1270 pf=0.92 kW=1.410959 Daily=RES1_25
New Load.BT_324496237_325279257_2 Bus1=node_420931804.2.4 Phases=1 Model=8 zipv=(0.5,0,0.5,1,0,0,0) kv=0.1270 pf=0.92 kW=1.410959 Daily=RES1_25
New Load.BT_324496237_325279257_3 Bus1=node_420931804.3.4 Phases=1 Model=8 zipv=(0.5,0,0.5,1,0,0,0) kv=0.1270 pf=0.92 kW=1.410959 Daily=RES1_25
New Load.BT_324659004_325281240_1 Bus1=node_418899277.1.4 Phases=1 Model=8 zipv=(0.5,0,0.5,1,0,0,0) kv=0.1270 pf=0.92 kW=3.558447 Daily=RES1_25
New Load.BT_324659004_325281240_2 Bus1=node_418899277.2.4 Phases=1 Model=8 zipv=(0.5,0,0.5,1,0,0,0) kv=0.1270 pf=0.92 kW=3.558447 Daily=RES1_25
New Load.BT_324659004_325281240_3 Bus1=node_418899277.3.4 Phases=1 Model=8 zipv=(0.5,0,0.5,1,0,0,0) kv=0.1270 pf=0.92 kW=3.558447 Daily=RES1_25
New Load.BT_324493720_325247566_1 Bus1=node_418899691.1.4 Phases=1 Model=8 zipv=(0.5,0,0.5,1,0,0,0) kv=0.1270 pf=0.92 kW=4.268493 Daily=RES1_25
New Load.BT_324493720_325247566_2 Bus1=node_418899691.2.4 Phases=1 Model=8 zipv=(0.5,0,0.5,1,0,0,0) kv=0.1270 pf=0.92 kW=4.268493 Daily=RES1_25
New Load.BT_324493720_325247566_3 Bus1=node_418899691.3.4 Phases=1 Model=8 zipv=(0.5,0,0.5,1,0,0,0) kv=0.1270 pf=0.92 kW=4.268493 Daily=RES1_25
New Load.BT_324799756_1447748433_1 Bus1=node_420145848.1.4 Phases=1 Model=8 zipv=(0.5,0,0.5,1,0,0,0) kv=0.1270 pf=0.92 kW=0.520091 Daily=RES1_25
New Load.BT_324799756_1447748433_2 Bus1=node_420145848.2.4 Phases=1 Model=8 zipv=(0.5,0,0.5,1,0,0,0) kv=0.1270 pf=0.92 kW=0.520091 Daily=RES1_25
New Load.BT_324799756_1447748433_3 Bus1=node_420145848.3.4 Phases=1 Model=8 zipv=(0.5,0,0.5,1,0,0,0) kv=0.1270 pf=0.92 kW=0.520091 Daily=RES1_25
New Load.BT_324941573_325186365_1 Bus1=node_418898884.1.4 Phases=1 Model=8 zipv=(0.5,0,0.5,1,0,0,0) kv=0.1270 pf=0.92 kW=7.121918 Daily=RES1_25
New Load.BT_324941573_325186365_2 Bus1=node_418898884.2.4 Phases=1 Model=8 zipv=(0.5,0,0.5,1,0,0,0) kv=0.1270 pf=0.92 kW=7.121918 Daily=RES1_25
New Load.BT_324941573_325186365_3 Bus1=node_418898884.3.4 Phases=1 Model=8 zipv=(0.5,0,0.5,1,0,0,0) kv=0.1270 pf=0.92 kW=7.121918 Daily=RES1_25
New Load.BT_324658054_325188419_1 Bus1=node_419923323.1.4 Phases=1 Model=8 zipv=(0.5,0,0.5,1,0,0,0) kv=0.1270 pf=0.92 kW=4.318721 Daily=RES1_25
New Load.BT_324658054_325188419_2 Bus1=node_419923323.2.4 Phases=1 Model=8 zipv=(0.5,0,0.5,1,0,0,0) kv=0.1270 pf=0.92 kW=4.318721 Daily=RES1_25
New Load.BT_324658054_325188419_3 Bus1=node_419923323.3.4 Phases=1 Model=8 zipv=(0.5,0,0.5,1,0,0,0) kv=0.1270 pf=0.92 kW=4.318721 Daily=RES1_25
New Load.BT_324497532_325216358_1 Bus1=node_418166680.1.4 Phases=1 Model=8 zipv=(0.5,0,0.5,1,0,0,0) kv=0.1270 pf=0.92 kW=4.736986 Daily=RES1_25
New Load.BT_324497532_325216358_2 Bus1=node_418166680.2.4 Phases=1 Model=8 zipv=(0.5,0,0.5,1,0,0,0) kv=0.1270 pf=0.92 kW=4.736986 Daily=RES1_25
New Load.BT_324497532_325216358_3 Bus1=node_418166680.3.4 Phases=1 Model=8 zipv=(0.5,0,0.5,1,0,0,0) kv=0.1270 pf=0.92 kW=4.736986 Daily=RES1_25
New Load.BT_324798258_325187573_1 Bus1=node_418936302.1.4 Phases=1 Model=8 zipv=(0.5,0,0.5,1,0,0,0) kv=0.1270 pf=0.92 kW=4.877626 Daily=RES1_25
New Load.BT_324798258_325187573_2 Bus1=node_418936302.2.4 Phases=1 Model=8 zipv=(0.5,0,0.5,1,0,0,0) kv=0.1270 pf=0.92 kW=4.877626 Daily=RES1_25
New Load.BT_324798258_325187573_3 Bus1=node_418936302.3.4 Phases=1 Model=8 zipv=(0.5,0,0.5,1,0,0,0) kv=0.1270 pf=0.92 kW=4.877626 Daily=RES1_25
New Load.BT_324203074_325280483_1 Bus1=node_418334052.1.4 Phases=1 Model=8 zipv=(0.5,0,0.5,1,0,0,0) kv=0.1270 pf=0.92 kW=2.725571 Daily=RES1_25
New Load.BT_324203074_325280483_2 Bus1=node_418334052.2.4 Phases=1 Model=8 zipv=(0.5,0,0.5,1,0,0,0) kv=0.1270 pf=0.92 kW=2.725571 Daily=RES1_25
New Load.BT_324203074_325280483_3 Bus1=node_418334052.3.4 Phases=1 Model=8 zipv=(0.5,0,0.5,1,0,0,0) kv=0.1270 pf=0.92 kW=2.725571 Daily=RES1_25
New Load.BT_1138137668_1138137667_1 Bus1=node_1407839559.1.4 Phases=1 Model=8 zipv=(0.5,0,0.5,1,0,0,0) kv=0.1200 pf=0.92 kW=2.219178 Daily=RES1_25
New Load.BT_1138137668_1138137667_2 Bus1=node_1407839559.2.4 Phases=1 Model=8 zipv=(0.5,0,0.5,1,0,0,0) kv=0.1200 pf=0.92 kW=2.219178 Daily=RES1_25
New Load.BT_324659714_325186863_1 Bus1=node_722710322.1.4 Phases=1 Model=8 zipv=(0.5,0,0.5,1,0,0,0) kv=0.1270 pf=0.92 kW=1.418265 Daily=RES1_25
New Load.BT_324659714_325186863_2 Bus1=node_722710322.2.4 Phases=1 Model=8 zipv=(0.5,0,0.5,1,0,0,0) kv=0.1270 pf=0.92 kW=1.418265 Daily=RES1_25
New Load.BT_324659714_325186863_3 Bus1=node_722710322.3.4 Phases=1 Model=8 zipv=(0.5,0,0.5,1,0,0,0) kv=0.1270 pf=0.92 kW=1.418265 Daily=RES1_25
New Load.BT_324800126_325187644_1 Bus1=node_418899709.1.4 Phases=1 Model=8 zipv=(0.5,0,0.5,1,0,0,0) kv=0.1270 pf=0.92 kW=3.034247 Daily=RES1_25
New Load.BT_324800126_325187644_2 Bus1=node_418899709.2.4 Phases=1 Model=8 zipv=(0.5,0,0.5,1,0,0,0) kv=0.1270 pf=0.92 kW=3.034247 Daily=RES1_25
New Load.BT_324800126_325187644_3 Bus1=node_418899709.3.4 Phases=1 Model=8 zipv=(0.5,0,0.5,1,0,0,0) kv=0.1270 pf=0.92 kW=3.034247 Daily=RES1_25
New Load.BT_324656743_325218578_1 Bus1=node_418899295.1.4 Phases=1 Model=8 zipv=(0.5,0,0.5,1,0,0,0) kv=0.1270 pf=0.92 kW=6.113699 Daily=RES1_25
New Load.BT_324656743_325218578_2 Bus1=node_418899295.2.4 Phases=1 Model=8 zipv=(0.5,0,0.5,1,0,0,0) kv=0.1270 pf=0.92 kW=6.113699 Daily=RES1_25
New Load.BT_324656743_325218578_3 Bus1=node_418899295.3.4 Phases=1 Model=8 zipv=(0.5,0,0.5,1,0,0,0) kv=0.1270 pf=0.92 kW=6.113699 Daily=RES1_25
New Load.BT_324203986_325218055_1 Bus1=node_418331100.1.4 Phases=1 Model=8 zipv=(0.5,0,0.5,1,0,0,0) kv=0.1270 pf=0.92 kW=2.465753 Daily=RES1_25
New Load.BT_324203986_325218055_2 Bus1=node_418331100.2.4 Phases=1 Model=8 zipv=(0.5,0,0.5,1,0,0,0) kv=0.1270 pf=0.92 kW=2.465753 Daily=RES1_25
New Load.BT_324203986_325218055_3 Bus1=node_418331100.3.4 Phases=1 Model=8 zipv=(0.5,0,0.5,1,0,0,0) kv=0.1270 pf=0.92 kW=2.465753 Daily=RES1_25
New Load.BT_324656583_325215198_1 Bus1=node_418416775.1.4 Phases=1 Model=8 zipv=(0.5,0,0.5,1,0,0,0) kv=0.1270 pf=0.92 kW=1.047032 Daily=RES1_25
New Load.BT_324656583_325215198_2 Bus1=node_418416775.2.4 Phases=1 Model=8 zipv=(0.5,0,0.5,1,0,0,0) kv=0.1270 pf=0.92 kW=1.047032 Daily=RES1_25
New Load.BT_324656583_325215198_3 Bus1=node_418416775.3.4 Phases=1 Model=8 zipv=(0.5,0,0.5,1,0,0,0) kv=0.1270 pf=0.92 kW=1.047032 Daily=RES1_25
New Load.BT_325064682_325248608_1 Bus1=node_419000128.1.4 Phases=1 Model=8 zipv=(0.5,0,0.5,1,0,0,0) kv=0.1270 pf=0.92 kW=3.118721 Daily=RES1_25
New Load.BT_325064682_325248608_2 Bus1=node_419000128.2.4 Phases=1 Model=8 zipv=(0.5,0,0.5,1,0,0,0) kv=0.1270 pf=0.92 kW=3.118721 Daily=RES1_25
New Load.BT_325064682_325248608_3 Bus1=node_419000128.3.4 Phases=1 Model=8 zipv=(0.5,0,0.5,1,0,0,0) kv=0.1270 pf=0.92 kW=3.118721 Daily=RES1_25
New Load.BT_324494893_325246686_1 Bus1=node_419925285.1.4 Phases=1 Model=8 zipv=(0.5,0,0.5,1,0,0,0) kv=0.1200 pf=0.92 kW=0.231507 Daily=RES1_25
New Load.BT_324494893_325246686_2 Bus1=node_419925285.2.4 Phases=1 Model=8 zipv=(0.5,0,0.5,1,0,0,0) kv=0.1200 pf=0.92 kW=0.231507 Daily=RES1_25
New Load.BT_324799317_325187277_1 Bus1=node_419110340.1.4 Phases=1 Model=8 zipv=(0.5,0,0.5,1,0,0,0) kv=0.1200 pf=0.92 kW=0.208219 Daily=RES1_25
New Load.BT_324799317_325187277_2 Bus1=node_419110340.2.4 Phases=1 Model=8 zipv=(0.5,0,0.5,1,0,0,0) kv=0.1200 pf=0.92 kW=0.208219 Daily=RES1_25
New Load.BT_324656689_325067094_1 Bus1=node_420903399.1.4 Phases=1 Model=8 zipv=(0.5,0,0.5,1,0,0,0) kv=0.1270 pf=0.92 kW=2.658904 Daily=RES1_25
New Load.BT_324656689_325067094_2 Bus1=node_420903399.2.4 Phases=1 Model=8 zipv=(0.5,0,0.5,1,0,0,0) kv=0.1270 pf=0.92 kW=2.658904 Daily=RES1_25
New Load.BT_324656689_325067094_3 Bus1=node_420903399.3.4 Phases=1 Model=8 zipv=(0.5,0,0.5,1,0,0,0) kv=0.1270 pf=0.92 kW=2.658904 Daily=RES1_25
New Load.BT_324494975_325283067_1 Bus1=node_419711318.1.4 Phases=1 Model=8 zipv=(0.5,0,0.5,1,0,0,0) kv=0.1270 pf=0.92 kW=2.850228 Daily=RES1_25
New Load.BT_324494975_325283067_2 Bus1=node_419711318.2.4 Phases=1 Model=8 zipv=(0.5,0,0.5,1,0,0,0) kv=0.1270 pf=0.92 kW=2.850228 Daily=RES1_25
New Load.BT_324494975_325283067_3 Bus1=node_419711318.3.4 Phases=1 Model=8 zipv=(0.5,0,0.5,1,0,0,0) kv=0.1270 pf=0.92 kW=2.850228 Daily=RES1_25
New Load.BT_325065247_325186379_1 Bus1=node_418936194.1.4 Phases=1 Model=8 zipv=(0.5,0,0.5,1,0,0,0) kv=0.1270 pf=0.92 kW=2.896347 Daily=RES1_25
New Load.BT_325065247_325186379_2 Bus1=node_418936194.2.4 Phases=1 Model=8 zipv=(0.5,0,0.5,1,0,0,0) kv=0.1270 pf=0.92 kW=2.896347 Daily=RES1_25
New Load.BT_325065247_325186379_3 Bus1=node_418936194.3.4 Phases=1 Model=8 zipv=(0.5,0,0.5,1,0,0,0) kv=0.1270 pf=0.92 kW=2.896347 Daily=RES1_25
New Load.BT_324942701_325214980_1 Bus1=node_419082081.1.4 Phases=1 Model=8 zipv=(0.5,0,0.5,1,0,0,0) kv=0.1270 pf=0.92 kW=4.350228 Daily=RES1_25
New Load.BT_324942701_325214980_2 Bus1=node_419082081.2.4 Phases=1 Model=8 zipv=(0.5,0,0.5,1,0,0,0) kv=0.1270 pf=0.92 kW=4.350228 Daily=RES1_25
New Load.BT_324942701_325214980_3 Bus1=node_419082081.3.4 Phases=1 Model=8 zipv=(0.5,0,0.5,1,0,0,0) kv=0.1270 pf=0.92 kW=4.350228 Daily=RES1_25
New Load.BT_324943931_325186179_1 Bus1=node_419142459.1.4 Phases=1 Model=8 zipv=(0.5,0,0.5,1,0,0,0) kv=0.1270 pf=0.92 kW=1.321918 Daily=RES1_25
New Load.BT_324943931_325186179_2 Bus1=node_419142459.2.4 Phases=1 Model=8 zipv=(0.5,0,0.5,1,0,0,0) kv=0.1270 pf=0.92 kW=1.321918 Daily=RES1_25
New Load.BT_324943931_325186179_3 Bus1=node_419142459.3.4 Phases=1 Model=8 zipv=(0.5,0,0.5,1,0,0,0) kv=0.1270 pf=0.92 kW=1.321918 Daily=RES1_25
New Load.BT_324658600_325279321_1 Bus1=node_420904218.1.4 Phases=1 Model=8 zipv=(0.5,0,0.5,1,0,0,0) kv=0.1270 pf=0.92 kW=1.643836 Daily=RES1_25
New Load.BT_324658600_325279321_2 Bus1=node_420904218.2.4 Phases=1 Model=8 zipv=(0.5,0,0.5,1,0,0,0) kv=0.1270 pf=0.92 kW=1.643836 Daily=RES1_25
New Load.BT_324658600_325279321_3 Bus1=node_420904218.3.4 Phases=1 Model=8 zipv=(0.5,0,0.5,1,0,0,0) kv=0.1270 pf=0.92 kW=1.643836 Daily=RES1_25
New Load.BT_324658792_325246363_1 Bus1=node_418416901.1.4 Phases=1 Model=8 zipv=(0.5,0,0.5,1,0,0,0) kv=0.1270 pf=0.92 kW=10.076712 Daily=RES1_25
New Load.BT_324658792_325246363_2 Bus1=node_418416901.2.4 Phases=1 Model=8 zipv=(0.5,0,0.5,1,0,0,0) kv=0.1270 pf=0.92 kW=10.076712 Daily=RES1_25
New Load.BT_324658792_325246363_3 Bus1=node_418416901.3.4 Phases=1 Model=8 zipv=(0.5,0,0.5,1,0,0,0) kv=0.1270 pf=0.92 kW=10.076712 Daily=RES1_25
New Load.BT_324493942_325281203_1 Bus1=node_418156185.1.4 Phases=1 Model=8 zipv=(0.5,0,0.5,1,0,0,0) kv=0.1270 pf=0.92 kW=3.398630 Daily=RES1_25
New Load.BT_324493942_325281203_2 Bus1=node_418156185.2.4 Phases=1 Model=8 zipv=(0.5,0,0.5,1,0,0,0) kv=0.1270 pf=0.92 kW=3.398630 Daily=RES1_25
New Load.BT_324493942_325281203_3 Bus1=node_418156185.3.4 Phases=1 Model=8 zipv=(0.5,0,0.5,1,0,0,0) kv=0.1270 pf=0.92 kW=3.398630 Daily=RES1_25
New Load.BT_324942516_325186380_1 Bus1=node_418938669.1.4 Phases=1 Model=8 zipv=(0.5,0,0.5,1,0,0,0) kv=0.1270 pf=0.92 kW=2.740639 Daily=RES1_25
New Load.BT_324942516_325186380_2 Bus1=node_418938669.2.4 Phases=1 Model=8 zipv=(0.5,0,0.5,1,0,0,0) kv=0.1270 pf=0.92 kW=2.740639 Daily=RES1_25
New Load.BT_324942516_325186380_3 Bus1=node_418938669.3.4 Phases=1 Model=8 zipv=(0.5,0,0.5,1,0,0,0) kv=0.1270 pf=0.92 kW=2.740639 Daily=RES1_25
New Load.BT_324801243_325279412_1 Bus1=node_420797759.1.4 Phases=1 Model=8 zipv=(0.5,0,0.5,1,0,0,0) kv=0.1200 pf=0.92 kW=0.310274 Daily=RES1_25
New Load.BT_324801243_325279412_2 Bus1=node_420797759.2.4 Phases=1 Model=8 zipv=(0.5,0,0.5,1,0,0,0) kv=0.1200 pf=0.92 kW=0.310274 Daily=RES1_25
New Load.BT_324657753_325326804_1 Bus1=node_418938225.1.4 Phases=1 Model=8 zipv=(0.5,0,0.5,1,0,0,0) kv=0.1270 pf=0.92 kW=5.429680 Daily=RES1_25
New Load.BT_324657753_325326804_2 Bus1=node_418938225.2.4 Phases=1 Model=8 zipv=(0.5,0,0.5,1,0,0,0) kv=0.1270 pf=0.92 kW=5.429680 Daily=RES1_25
New Load.BT_324657753_325326804_3 Bus1=node_418938225.3.4 Phases=1 Model=8 zipv=(0.5,0,0.5,1,0,0,0) kv=0.1270 pf=0.92 kW=5.429680 Daily=RES1_25
New Load.BT_324496966_521480544_1 Bus1=node_418899019.1.4 Phases=1 Model=8 zipv=(0.5,0,0.5,1,0,0,0) kv=0.1270 pf=0.92 kW=3.962557 Daily=RES1_25
New Load.BT_324496966_521480544_2 Bus1=node_418899019.2.4 Phases=1 Model=8 zipv=(0.5,0,0.5,1,0,0,0) kv=0.1270 pf=0.92 kW=3.962557 Daily=RES1_25
New Load.BT_324496966_521480544_3 Bus1=node_418899019.3.4 Phases=1 Model=8 zipv=(0.5,0,0.5,1,0,0,0) kv=0.1270 pf=0.92 kW=3.962557 Daily=RES1_25
New Load.BT_324660375_325326819_1 Bus1=node_418900987.1.4 Phases=1 Model=8 zipv=(0.5,0,0.5,1,0,0,0) kv=0.1270 pf=0.92 kW=3.869406 Daily=RES1_25
New Load.BT_324660375_325326819_2 Bus1=node_418900987.2.4 Phases=1 Model=8 zipv=(0.5,0,0.5,1,0,0,0) kv=0.1270 pf=0.92 kW=3.869406 Daily=RES1_25
New Load.BT_324660375_325326819_3 Bus1=node_418900987.3.4 Phases=1 Model=8 zipv=(0.5,0,0.5,1,0,0,0) kv=0.1270 pf=0.92 kW=3.869406 Daily=RES1_25
New Load.BT_324798193_325187282_1 Bus1=node_419109032.1.4 Phases=1 Model=8 zipv=(0.5,0,0.5,1,0,0,0) kv=0.1270 pf=0.92 kW=7.974429 Daily=RES1_25
New Load.BT_324798193_325187282_2 Bus1=node_419109032.2.4 Phases=1 Model=8 zipv=(0.5,0,0.5,1,0,0,0) kv=0.1270 pf=0.92 kW=7.974429 Daily=RES1_25
New Load.BT_324798193_325187282_3 Bus1=node_419109032.3.4 Phases=1 Model=8 zipv=(0.5,0,0.5,1,0,0,0) kv=0.1270 pf=0.92 kW=7.974429 Daily=RES1_25
New Load.BT_324656841_325326798_1 Bus1=node_418899361.1.4 Phases=1 Model=8 zipv=(0.5,0,0.5,1,0,0,0) kv=0.1270 pf=0.92 kW=6.608676 Daily=RES1_25
New Load.BT_324656841_325326798_2 Bus1=node_418899361.2.4 Phases=1 Model=8 zipv=(0.5,0,0.5,1,0,0,0) kv=0.1270 pf=0.92 kW=6.608676 Daily=RES1_25
New Load.BT_324656841_325326798_3 Bus1=node_418899361.3.4 Phases=1 Model=8 zipv=(0.5,0,0.5,1,0,0,0) kv=0.1270 pf=0.92 kW=6.608676 Daily=RES1_25
New Load.BT_324497508_325248471_1 Bus1=node_419144796.1.4 Phases=1 Model=8 zipv=(0.5,0,0.5,1,0,0,0) kv=0.1270 pf=0.92 kW=3.664384 Daily=RES1_25
New Load.BT_324497508_325248471_2 Bus1=node_419144796.2.4 Phases=1 Model=8 zipv=(0.5,0,0.5,1,0,0,0) kv=0.1270 pf=0.92 kW=3.664384 Daily=RES1_25
New Load.BT_324497508_325248471_3 Bus1=node_419144796.3.4 Phases=1 Model=8 zipv=(0.5,0,0.5,1,0,0,0) kv=0.1270 pf=0.92 kW=3.664384 Daily=RES1_25
New Load.BT_325065422_325187639_1 Bus1=node_418899727.1.4 Phases=1 Model=8 zipv=(0.5,0,0.5,1,0,0,0) kv=0.1270 pf=0.92 kW=9.605936 Daily=RES1_25
New Load.BT_325065422_325187639_2 Bus1=node_418899727.2.4 Phases=1 Model=8 zipv=(0.5,0,0.5,1,0,0,0) kv=0.1270 pf=0.92 kW=9.605936 Daily=RES1_25
New Load.BT_325065422_325187639_3 Bus1=node_418899727.3.4 Phases=1 Model=8 zipv=(0.5,0,0.5,1,0,0,0) kv=0.1270 pf=0.92 kW=9.605936 Daily=RES1_25
New Load.BT_325064719_325248539_1 Bus1=node_418901014.1.4 Phases=1 Model=8 zipv=(0.5,0,0.5,1,0,0,0) kv=0.1270 pf=0.92 kW=4.692694 Daily=RES1_25
New Load.BT_325064719_325248539_2 Bus1=node_418901014.2.4 Phases=1 Model=8 zipv=(0.5,0,0.5,1,0,0,0) kv=0.1270 pf=0.92 kW=4.692694 Daily=RES1_25
New Load.BT_325064719_325248539_3 Bus1=node_418901014.3.4 Phases=1 Model=8 zipv=(0.5,0,0.5,1,0,0,0) kv=0.1270 pf=0.92 kW=4.692694 Daily=RES1_25
New Load.BT_324942126_325186905_1 Bus1=node_419747404.1.4 Phases=1 Model=8 zipv=(0.5,0,0.5,1,0,0,0) kv=0.1270 pf=0.92 kW=4.131050 Daily=RES1_25
New Load.BT_324942126_325186905_2 Bus1=node_419747404.2.4 Phases=1 Model=8 zipv=(0.5,0,0.5,1,0,0,0) kv=0.1270 pf=0.92 kW=4.131050 Daily=RES1_25
New Load.BT_324942126_325186905_3 Bus1=node_419747404.3.4 Phases=1 Model=8 zipv=(0.5,0,0.5,1,0,0,0) kv=0.1270 pf=0.92 kW=4.131050 Daily=RES1_25
New Load.BT_325064718_325066358_1 Bus1=node_419040291.1.4 Phases=1 Model=8 zipv=(0.5,0,0.5,1,0,0,0) kv=0.1200 pf=0.92 kW=3.995890 Daily=RES1_25
New Load.BT_325064718_325066358_2 Bus1=node_419040291.2.4 Phases=1 Model=8 zipv=(0.5,0,0.5,1,0,0,0) kv=0.1200 pf=0.92 kW=3.995890 Daily=RES1_25
New Load.BT_324203632_325248538_1 Bus1=node_418936092.1.4 Phases=1 Model=8 zipv=(0.5,0,0.5,1,0,0,0) kv=0.1270 pf=0.92 kW=6.969406 Daily=RES1_25
New Load.BT_324203632_325248538_2 Bus1=node_418936092.2.4 Phases=1 Model=8 zipv=(0.5,0,0.5,1,0,0,0) kv=0.1270 pf=0.92 kW=6.969406 Daily=RES1_25
New Load.BT_324203632_325248538_3 Bus1=node_418936092.3.4 Phases=1 Model=8 zipv=(0.5,0,0.5,1,0,0,0) kv=0.1270 pf=0.92 kW=6.969406 Daily=RES1_25
New Load.BT_324658821_1331762630_1 Bus1=node_418899481.1.4 Phases=1 Model=8 zipv=(0.5,0,0.5,1,0,0,0) kv=0.1270 pf=0.92 kW=3.348858 Daily=RES1_25
New Load.BT_324658821_1331762630_2 Bus1=node_418899481.2.4 Phases=1 Model=8 zipv=(0.5,0,0.5,1,0,0,0) kv=0.1270 pf=0.92 kW=3.348858 Daily=RES1_25
New Load.BT_324658821_1331762630_3 Bus1=node_418899481.3.4 Phases=1 Model=8 zipv=(0.5,0,0.5,1,0,0,0) kv=0.1270 pf=0.92 kW=3.348858 Daily=RES1_25
New Load.BT_325064949_325217421_1 Bus1=node_418899184.1.4 Phases=1 Model=8 zipv=(0.5,0,0.5,1,0,0,0) kv=0.1270 pf=0.92 kW=5.182192 Daily=RES1_25
New Load.BT_325064949_325217421_2 Bus1=node_418899184.2.4 Phases=1 Model=8 zipv=(0.5,0,0.5,1,0,0,0) kv=0.1270 pf=0.92 kW=5.182192 Daily=RES1_25
New Load.BT_325064949_325217421_3 Bus1=node_418899184.3.4 Phases=1 Model=8 zipv=(0.5,0,0.5,1,0,0,0) kv=0.1270 pf=0.92 kW=5.182192 Daily=RES1_25
New Load.BT_324496806_325218541_1 Bus1=node_419000413.1.4 Phases=1 Model=8 zipv=(0.5,0,0.5,1,0,0,0) kv=0.1270 pf=0.92 kW=5.225571 Daily=RES1_25
New Load.BT_324496806_325218541_2 Bus1=node_419000413.2.4 Phases=1 Model=8 zipv=(0.5,0,0.5,1,0,0,0) kv=0.1270 pf=0.92 kW=5.225571 Daily=RES1_25
New Load.BT_324496806_325218541_3 Bus1=node_419000413.3.4 Phases=1 Model=8 zipv=(0.5,0,0.5,1,0,0,0) kv=0.1270 pf=0.92 kW=5.225571 Daily=RES1_25
New Load.BT_1052860181_1052860180_1 Bus1=node_1319496650.1.4 Phases=1 Model=8 zipv=(0.5,0,0.5,1,0,0,0) kv=0.1270 pf=0.92 kW=0.326027 Daily=RES1_25
New Load.BT_1052860181_1052860180_2 Bus1=node_1319496650.2.4 Phases=1 Model=8 zipv=(0.5,0,0.5,1,0,0,0) kv=0.1270 pf=0.92 kW=0.326027 Daily=RES1_25
New Load.BT_1052860181_1052860180_3 Bus1=node_1319496650.3.4 Phases=1 Model=8 zipv=(0.5,0,0.5,1,0,0,0) kv=0.1270 pf=0.92 kW=0.326027 Daily=RES1_25
New Load.BT_324658210_909413738_1 Bus1=node_420960065.1.4 Phases=1 Model=8 zipv=(0.5,0,0.5,1,0,0,0) kv=0.1270 pf=0.92 kW=1.159817 Daily=RES1_25
New Load.BT_324658210_909413738_2 Bus1=node_420960065.2.4 Phases=1 Model=8 zipv=(0.5,0,0.5,1,0,0,0) kv=0.1270 pf=0.92 kW=1.159817 Daily=RES1_25
New Load.BT_324658210_909413738_3 Bus1=node_420960065.3.4 Phases=1 Model=8 zipv=(0.5,0,0.5,1,0,0,0) kv=0.1270 pf=0.92 kW=1.159817 Daily=RES1_25
New Load.BT_324494531_325187654_1 Bus1=node_418938819.1.4 Phases=1 Model=8 zipv=(0.5,0,0.5,1,0,0,0) kv=0.1270 pf=0.92 kW=4.777626 Daily=RES1_25
New Load.BT_324494531_325187654_2 Bus1=node_418938819.2.4 Phases=1 Model=8 zipv=(0.5,0,0.5,1,0,0,0) kv=0.1270 pf=0.92 kW=4.777626 Daily=RES1_25
New Load.BT_324494531_325187654_3 Bus1=node_418938819.3.4 Phases=1 Model=8 zipv=(0.5,0,0.5,1,0,0,0) kv=0.1270 pf=0.92 kW=4.777626 Daily=RES1_25
New Load.BT_324495518_325326801_1 Bus1=node_418899586.1.4 Phases=1 Model=8 zipv=(0.5,0,0.5,1,0,0,0) kv=0.1270 pf=0.92 kW=5.578082 Daily=RES1_25
New Load.BT_324495518_325326801_2 Bus1=node_418899586.2.4 Phases=1 Model=8 zipv=(0.5,0,0.5,1,0,0,0) kv=0.1270 pf=0.92 kW=5.578082 Daily=RES1_25
New Load.BT_324495518_325326801_3 Bus1=node_418899586.3.4 Phases=1 Model=8 zipv=(0.5,0,0.5,1,0,0,0) kv=0.1270 pf=0.92 kW=5.578082 Daily=RES1_25
New Load.BT_324494298_1572479976_1 Bus1=node_418156200.1.4 Phases=1 Model=8 zipv=(0.5,0,0.5,1,0,0,0) kv=0.1270 pf=0.92 kW=3.817352 Daily=RES1_25
New Load.BT_324494298_1572479976_2 Bus1=node_418156200.2.4 Phases=1 Model=8 zipv=(0.5,0,0.5,1,0,0,0) kv=0.1270 pf=0.92 kW=3.817352 Daily=RES1_25
New Load.BT_324494298_1572479976_3 Bus1=node_418156200.3.4 Phases=1 Model=8 zipv=(0.5,0,0.5,1,0,0,0) kv=0.1270 pf=0.92 kW=3.817352 Daily=RES1_25
New Load.BT_324801055_325185584_1 Bus1=node_418351840.1.4 Phases=1 Model=8 zipv=(0.5,0,0.5,1,0,0,0) kv=0.1270 pf=0.92 kW=3.283562 Daily=RES1_25
New Load.BT_324801055_325185584_2 Bus1=node_418351840.2.4 Phases=1 Model=8 zipv=(0.5,0,0.5,1,0,0,0) kv=0.1270 pf=0.92 kW=3.283562 Daily=RES1_25
...

! --- cargas de media tensao (UCMT_tab) ---
New Load.MT_node_108668527_5 Bus1=node_108668527.1.2.3 Phases=3 Conn=wye Model=8 zipv=(0.5,0,0.5,1,0,0,0) kv=13.8000 pf=0.92 kW=87.8411 Daily=MT1_1
New Load.MT_node_108672232_8 Bus1=node_108672232.1.2.3 Phases=3 Conn=wye Model=8 zipv=(0.5,0,0.5,1,0,0,0) kv=13.8000 pf=0.92 kW=42.2356 Daily=MT1_1
New Load.MT_node_112289956_10 Bus1=node_112289956.1.2.3 Phases=3 Conn=wye Model=8 zipv=(0.5,0,0.5,1,0,0,0) kv=13.8000 pf=0.92 kW=15.2205 Daily=MT1_1
New Load.MT_node_112793367_11 Bus1=node_112793367.1.2.3 Phases=3 Conn=wye Model=8 zipv=(0.5,0,0.5,1,0,0,0) kv=13.8000 pf=0.92 kW=15.2205 Daily=MT1_1
New Load.MT_node_117934449_12 Bus1=node_117934449.1.2.3 Phases=3 Conn=wye Model=8 zipv=(0.5,0,0.5,1,0,0,0) kv=13.8000 pf=0.92 kW=11.5068 Daily=MT1_1
New Load.MT_node_109234938_13 Bus1=node_109234938.1.2.3 Phases=3 Conn=wye Model=8 zipv=(0.5,0,0.5,1,0,0,0) kv=13.8000 pf=0.92 kW=14.3781 Daily=MT1_1
New Load.MT_node_441154570_14 Bus1=node_441154570.1.2.3 Phases=3 Conn=wye Model=8 zipv=(0.5,0,0.5,1,0,0,0) kv=13.8000 pf=0.92 kW=8.0877 Daily=MT1_1
New Load.MT_node_114002092_15 Bus1=node_114002092.1.2.3 Phases=3 Conn=wye Model=8 zipv=(0.5,0,0.5,1,0,0,0) kv=13.8000 pf=0.92 kW=4.9863 Daily=MT1_1
New Load.MT_node_108868748_16 Bus1=node_108868748.1.2.3 Phases=3 Conn=wye Model=8 zipv=(0.5,0,0.5,1,0,0,0) kv=13.8000 pf=0.92 kW=5.0548 Daily=MT1_1
New Load.MT_node_1597123852_17 Bus1=node_1597123852.1.2.3 Phases=3 Conn=wye Model=8 zipv=(0.5,0,0.5,1,0,0,0) kv=13.8000 pf=0.92 kW=1.9178 Daily=MT1_1
New Load.MT_node_109338439_18 Bus1=node_109338439.1.2.3 Phases=3 Conn=wye Model=8 zipv=(0.5,0,0.5,1,0,0,0) kv=13.8000 pf=0.92 kW=2.3589 Daily=MT1_1
New Load.MT_node_113824268_19 Bus1=node_113824268.1.2.3 Phases=3 Conn=wye Model=8 zipv=(0.5,0,0.5,1,0,0,0) kv=13.8000 pf=0.92 kW=1.7411 Daily=MT1_1
New Load.MT_node_109450214_20 Bus1=node_109450214.1.2.3 Phases=3 Conn=wye Model=8 zipv=(0.5,0,0.5,1,0,0,0) kv=13.8000 pf=0.92 kW=4.6055 Daily=MT1_1
New Load.MT_node_109340299_21 Bus1=node_109340299.1.2.3 Phases=3 Conn=wye Model=8 zipv=(0.5,0,0.5,1,0,0,0) kv=13.8000 pf=0.92 kW=0.2247 Daily=MT1_1
New Load.MT_node_126048280_22 Bus1=node_126048280.1.2.3 Phases=3 Conn=wye Model=8 zipv=(0.5,0,0.5,1,0,0,0) kv=13.8000 pf=0.92 kW=1.5164 Daily=MT1_1
New Load.MT_node_108379842_23 Bus1=node_108379842.1.2.3 Phases=3 Conn=wye Model=8 zipv=(0.5,0,0.5,1,0,0,0) kv=13.8000 pf=0.92 kW=70.4301 Daily=MT1_1
New Load.MT_node_915695654_24 Bus1=node_915695654.1.2 Phases=2 Conn=wye Model=8 zipv=(0.5,0,0.5,1,0,0,0) kv=7.9674 pf=0.92 kW=155.3425 Daily=MT1_1
